
     RDKit          3D

 64 63  0  0  0  0  0  0  0  0999 V2000
   -2.1347    0.7805    0.3010 N   0  0  0  0  0  0  0  0  0  0  0  0
   -2.1109   -0.4900   -0.4021 C   0  0  0  0  0  0  0  0  0  0  0  0
   -0.7400   -0.8083   -1.0002 C   0  0  0  0  0  0  0  0  0  0  0  0
    0.3902   -1.0479    0.0129 C   0  0  0  0  0  0  0  0  0  0  0  0
    0.8593    0.1740    0.8171 C   0  0  0  0  0  0  0  0  0  0  0  0
    1.9958   -0.2126    1.6953 N   0  0  0  0  0  0  0  0  0  0  0  0
    1.2898    1.3129   -0.1176 C   0  0  0  0  0  0  0  0  0  0  0  0
    0.5840    2.2116   -0.5510 O   0  0  0  0  0  0  0  0  0  0  0  0
    2.5781    1.2118   -0.5262 O   0  0  0  0  0  0  0  0  0  0  0  0
    6.1846    1.3066    0.2268 N   0  0  0  0  0  0  0  0  0  0  0  0
    5.6858   -0.0728    0.0474 C   0  0  0  0  0  0  0  0  0  0  0  0
    4.1588   -0.1685    0.1431 C   0  0  0  0  0  0  0  0  0  0  0  0
    3.4459    0.4434   -1.0616 C   0  0  0  0  0  0  0  0  0  0  0  0
    1.9449    0.3067   -0.9024 C   0  0  0  0  0  0  0  0  0  0  0  0
    1.3108    1.2608   -0.2800 N   0  0  0  0  0  0  0  0  0  0  0  0
   -0.0494    1.1030   -0.1360 C   0  0  0  0  0  0  0  0  0  0  0  0
   -0.7805    0.1100   -0.6839 C   0  0  0  0  0  0  0  0  0  0  0  0
   -0.1504   -0.8559   -1.4610 N   0  0  0  0  0  0  0  0  0  0  0  0
    1.2987   -0.9831   -1.4145 C   0  0  0  0  0  0  0  0  0  0  0  0
   -2.2841   -0.0429   -0.5257 C   0  0  0  0  0  0  0  0  0  0  0  0
   -3.0303    1.0849    0.1993 C   0  0  0  0  0  0  0  0  0  0  0  0
   -4.5570    0.9185    0.1763 C   0  0  0  0  0  0  0  0  0  0  0  0
   -5.0950   -0.3659    0.8219 C   0  0  0  0  0  0  0  0  0  0  0  0
   -4.6351   -0.4808    2.2254 N   0  0  0  0  0  0  0  0  0  0  0  0
   -6.6315   -0.3893    0.7466 C   0  0  0  0  0  0  0  0  0  0  0  0
   -7.3244    0.0043   -0.1776 O   0  0  0  0  0  0  0  0  0  0  0  0
   -7.2120   -0.9536    1.8314 O   0  0  0  0  0  0  0  0  0  0  0  0
    6.3038   -1.0089    1.0930 C   0  0  0  0  0  0  0  0  0  0  0  0
    6.4638   -2.2137    0.9706 O   0  0  0  0  0  0  0  0  0  0  0  0
    6.6059   -0.3951    2.2599 O   0  0  0  0  0  0  0  0  0  0  0  0
   -1.7603    1.5257   -0.2930 H   0  0  0  0  0  0  0  0  0  0  0  0
   -3.0964    1.0426    0.5137 H   0  0  0  0  0  0  0  0  0  0  0  0
   -2.4142   -1.2882    0.2837 H   0  0  0  0  0  0  0  0  0  0  0  0
   -2.8487   -0.4593   -1.2118 H   0  0  0  0  0  0  0  0  0  0  0  0
   -0.4522   -0.0300   -1.7168 H   0  0  0  0  0  0  0  0  0  0  0  0
   -0.8485   -1.7270   -1.5919 H   0  0  0  0  0  0  0  0  0  0  0  0
    0.0772   -1.8414    0.7043 H   0  0  0  0  0  0  0  0  0  0  0  0
    1.2443   -1.4509   -0.5491 H   0  0  0  0  0  0  0  0  0  0  0  0
    0.0801    0.5516    1.4825 H   0  0  0  0  0  0  0  0  0  0  0  0
    2.8135   -0.3546    1.0981 H   0  0  0  0  0  0  0  0  0  0  0  0
    1.7929   -1.1066    2.1369 H   0  0  0  0  0  0  0  0  0  0  0  0
    2.7007    2.0061   -1.0859 H   0  0  0  0  0  0  0  0  0  0  0  0
    5.5418    1.9797   -0.1845 H   0  0  0  0  0  0  0  0  0  0  0  0
    6.1933    1.5047    1.2321 H   0  0  0  0  0  0  0  0  0  0  0  0
    6.0300   -0.4215   -0.9330 H   0  0  0  0  0  0  0  0  0  0  0  0
    3.8636   -1.2226    0.2330 H   0  0  0  0  0  0  0  0  0  0  0  0
    3.8092    0.3096    1.0685 H   0  0  0  0  0  0  0  0  0  0  0  0
    3.6833    1.5074   -1.1647 H   0  0  0  0  0  0  0  0  0  0  0  0
    3.7527   -0.0555   -1.9871 H   0  0  0  0  0  0  0  0  0  0  0  0
   -0.5183    1.8719    0.4704 H   0  0  0  0  0  0  0  0  0  0  0  0
   -0.6680   -1.7233   -1.5671 H   0  0  0  0  0  0  0  0  0  0  0  0
    1.5800   -1.7996   -0.7415 H   0  0  0  0  0  0  0  0  0  0  0  0
    1.6785   -1.2062   -2.4158 H   0  0  0  0  0  0  0  0  0  0  0  0
   -2.4625   -0.9886    0.0005 H   0  0  0  0  0  0  0  0  0  0  0  0
   -2.7180   -0.1510   -1.5287 H   0  0  0  0  0  0  0  0  0  0  0  0
   -2.6827    1.1589    1.2367 H   0  0  0  0  0  0  0  0  0  0  0  0
   -2.7967    2.0438   -0.2807 H   0  0  0  0  0  0  0  0  0  0  0  0
   -4.8960    0.9637   -0.8672 H   0  0  0  0  0  0  0  0  0  0  0  0
   -5.0051    1.7913    0.6707 H   0  0  0  0  0  0  0  0  0  0  0  0
   -4.7482   -1.2489    0.2747 H   0  0  0  0  0  0  0  0  0  0  0  0
   -4.9361    0.3502    2.7360 H   0  0  0  0  0  0  0  0  0  0  0  0
   -5.1685   -1.2437    2.6538 H   0  0  0  0  0  0  0  0  0  0  0  0
   -8.1704   -0.9165    1.6264 H   0  0  0  0  0  0  0  0  0  0  0  0
    6.9849   -1.1116    2.8102 H   0  0  0  0  0  0  0  0  0  0  0  0
  1  2  1  0
  2  3  1  0
  3  4  1  0
  4  5  1  0
  5  6  1  0
  5  7  1  0
  7  8  2  0
  7  9  1  0
 10 11  1  0
 11 12  1  0
 12 13  1  0
 13 14  1  0
 14 15  2  0
 15 16  1  0
 16 17  2  0
 17 18  1  0
 18 19  1  0
 17 20  1  0
 20 21  1  0
 21 22  1  0
 22 23  1  0
 23 24  1  0
 23 25  1  0
 25 26  2  0
 25 27  1  0
 11 28  1  0
 28 29  2  0
 28 30  1  0
 19 14  1  0
  1 31  1  0
  1 32  1  0
  2 33  1  0
  2 34  1  0
  3 35  1  0
  3 36  1  0
  4 37  1  0
  4 38  1  0
  5 39  1  0
  6 40  1  0
  6 41  1  0
  9 42  1  0
 10 43  1  0
 10 44  1  0
 11 45  1  0
 12 46  1  0
 12 47  1  0
 13 48  1  0
 13 49  1  0
 16 50  1  0
 18 51  1  0
 19 52  1  0
 19 53  1  0
 20 54  1  0
 20 55  1  0
 21 56  1  0
 21 57  1  0
 22 58  1  0
 22 59  1  0
 23 60  1  0
 24 61  1  0
 24 62  1  0
 27 63  1  0
 30 64  1  0
M  END
$$$$
